jasontaylordev/cleanarchitecture
ardalis/cleanarchitecture
ql-win/quicklook
netchx/netch
bitwarden/server
ppy/osu
materialdesigninxaml/materialdesigninxamltoolkit
dotnet/runtime
rocksdanister/lively
carlospolop/peass-ng
openra/openra
dotnet/efcore
stackexchange/dapper
app-vnext/polly
abpframework/abp
dotnet/aspnetcore.docs
marticliment/UniGetUI
jackett/jackett
aspnetboilerplate/aspnetboilerplate
unity-technologies/unitycsreference
bluepointlilac/contextmenumanager
nilaoda/n_m3u8dl-cli
questpdf/questpdf
monogame/monogame
winsw/winsw
justarchinet/archisteamfarm
duplicati/duplicati
jbogard/mediatr
mono/mono
klocman/bulk-crap-uninstaller
jamesnk/newtonsoft.json
sonarr/sonarr
kgrzybek/modular-monolith-with-ddd
dotnet/benchmarkdotnet
chocolatey/choco
microsoft/garnet
marticliment/WingetUI
dotnet/orleans
radarr/radarr
dotnet-architecture/eshoponweb
automapper/automapper
perfare/assetstudio
cefsharp/cefsharp
srwi/everythingtoolbar
gui-cs/terminal.gui
restsharp/restsharp
quantconnect/lean
hangfireio/hangfire
nilaoda/bbdown
spectreconsole/spectre.console
mahapps/mahapps.metro
nopsolutions/nopcommerce
felixse/fluentterminal
dodyg/practical-aspnetcore
dotnet/machinelearning
fluentvalidation/fluentvalidation
signalr/signalr
file-new-project/eartrumpet
josefnemec/playnite
unoplatform/uno
0x7c13/notepads
bchavez/bogus
humanizr/humanizer
richasy/bili.uwp
reactiveui/refit
microsoft/reverse-proxy
subtitleedit/subtitleedit
mbdavid/litedb
threemammals/ocelot
mathewsachin/captura
lucasg/dependencies
reactiveui/reactiveui
mudblazor/mudblazor
flow-launcher/flow.launcher
dvf/blockchain
gitextensions/gitextensions
microsoft/ailab
tyrrrz/discordchatexporter
orchardcms/orchardcore
autodarkmode/windows-auto-night-mode
Reference-LAPACK/lapack
wrf-model/WRF
ElmerCSC/elmerfem
fortran-lang/stdlib
fortran-lang/fpm
cp2k/cp2k
OpenFAST/openfast
OpenRadioss/OpenRadioss
grimme-lab/xtb
nwchemgit/nwchem
modern-fortran/neural-fortran
Nek5000/Nek5000
FluidityProject/fluidity
E3SM-Project/E3SM
jacobwilliams/json-fortran
MITgcm/MITgcm
dftbplus/dftbplus
ESCOMP/CTSM
JuliaPackaging/Yggdrasil
libprima/prima
opencollab/arpack-ng
USEPA/CMAQ
nasa/CFL3D
NOAA-EMC/WW3
quanshengwu/wannier_tools
MODFLOW-USGS/modflow6
ucns3d-team/UCNS3D
rouyang2017/SISSO
sourceryinstitute/OpenCoarrays
flame/libflame
spacepy/spacepy
mdolab/adflow
flexi-framework/flexi
ylikx/forpy
certik/fortran-utils
abinit/abinit
ROCm/aomp
NCAR/DART
NCAR/wrf_hydro_nwm_public
Warwick-Plasma/epoch
certik/fastGPT
CDAT/cdat
scientific-computing/FKB
Goddard-Fortran-Ecosystem/pFUnit
geoschem/geos-chem
ExtremeFLOW/neko
jacobwilliams/bspline-fortran
dftd4/dftd4
ROCm/gpufort
kookma/ogpf
esmf-org/esmf
clawpack/pyclaw
daoudclarke/wartonlegacy
CliMT/climt
DSSAT/dssat-csm-os
xcompact3d/Incompact3d
modern-fortran/tsunami
MFlowCode/MFC
MESAHub/mesa
ExeClim/Isca
